Flow Title=WAT-FRA_Link
Program Version=6.01
Use Restart= 0
Initial Flow Loc=Clear_Fork      ,Clear_Fork      ,60.4808 ,666.0
Initial Flow Loc=Denton_Creek    ,DC              ,11.5    ,666.0
Initial Flow Loc=Elm Fork        ,Upper           ,59      ,666.0
Initial Flow Loc=Mountain_Creek  ,Joe_Pool        ,12.038  ,666.0
Initial Storage Elev=Benbrook Lake   ,104.0
Initial Storage Elev=Grapevine       ,104.0
Initial Storage Elev=Joe_Pool        ,104.0
Initial Storage Elev=Ray Roberts Lake,104.0
Initial RRR Elev=Clear_Fork      ,Clear_Fork      ,60.4751 ,104.0
Initial RRR Elev=Denton_Creek    ,DC              ,11.48   ,104.0
Initial RRR Elev=Elm Fork        ,Upper           ,58.9    ,104.0
Initial RRR Elev=Elm Fork        ,Upper           ,30.100  ,104.0
Initial RRR Elev=Mountain_Creek  ,Joe_Pool        ,12.034  ,104.0
Initial RRR Elev=Mountain_Creek  ,Joe_Pool        ,4.284   ,104.0
Boundary Location=Elm Fork        ,Upper           ,30.00   ,        ,                ,                ,                ,
Boundary Name=DAM LewisVille
Rule Operation=Type=2,Var Name=LewisvillePool,Var Type=1,River=Elm Fork,Reach=Upper,RS=30.1,Sim Group=Cross Sections,Sim Function=WS Elevation,Time=1
Rule Operation=Type=4,Var Type=1,Branch Type=0,Branch Or=0,BranchCompare1=1,BranchCompare2=0
Rule Expression=,Variable=LewisvillePool
Rule Expression=,Constant=470
Rule Operation=Type=3,Var Type=1,Sim Group=Inline Structures,Sim Function=Structure.Stage (Fixed)
Rule Expression=,Constant=469
Rule Operation=Type=4,Var Type=1,Branch Type=5,Branch Or=0,BranchCompare1=0,BranchCompare2=0
Rule Operation=Type=2,Var Name=OutflowLewisville,Var Type=1,SA=OutflowLewisvill,Sim Group=Storage Areas,Sim Function=Total Inflow,Time=1
Rule Operation=Type=3,Var Type=1,Sim Group=Inline Structures,Sim Function=Structure.Total Gate Flow
Rule Expression=,Variable=OutflowLewisville

Rule Gate Data=Gate #1     ,0.5,0.5,13,0,5.1
Boundary Location=Mountain_Creek  ,Joe_Pool        ,4.267   ,        ,                ,                ,                ,
Boundary Name=DAM MountainCreek
Rule Operation=Type=2,Var Name=OutflowMtnCreek,Var Type=1,SA=OutflowMtnCreek,Sim Group=Storage Areas,Sim Function=Total Inflow,Time=1
Rule Operation=Type=3,Var Type=1,Sim Group=Inline Structures,Sim Function=Structure.Total Gate Flow
Rule Expression=,Variable=OutflowMtnCreek
Rule Operation=Type=2,Var Name=MountainCreekPool,Var Type=1,River=Mountain_Creek,Reach=Joe_Pool,RS=4.757,Sim Group=Cross Sections,Sim Function=WS Elevation,Time=1
Rule Operation=Type=4,Var Type=1,Branch Type=0,Branch Or=0,BranchCompare1=1,BranchCompare2=0
Rule Expression=,Variable=MountainCreekPool
Rule Expression=,Constant=442
Rule Operation=Type=3,Var Type=1,Sim Group=Inline Structures,Sim Function=Structure.Total Gate Flow
Rule Expression=,Constant=0
Rule Operation=Type=4,Var Type=1,Branch Type=5,Branch Or=0,BranchCompare1=0,BranchCompare2=0

Rule Gate Data=Gate #1     ,0.5,0.5,27,0,0
Boundary Location=                ,                ,        ,        ,                ,Grapevine       ,                ,
Boundary Name=HMS Grapevine Inflow
Interval=1WEEK
Lateral Inflow Hydrograph= 2
     300   20000
Flow Hydrograph QMin= 600
DSS File=Validation.dss
DSS Path=//GRAPEVINE INFLOW/FLOW//1HOUR/C:000001|EXISTING C:VALIDATION:HMS-(MCA)TRINITY_FRA/
Use DSS=True
Use Fixed Start Time=False
Fixed Start Date/Time=,
Is Critical Boundary=False
Critical Boundary Flow=
Boundary Location=Elm Fork        ,Upper           ,56.8    ,        ,                ,                ,                ,
Boundary Name=DAM Ray Roberts
Rule Operation=Type=2,Var Name=OutflowRayRoberts,Var Type=1,SA=OutflowRayRobert,Sim Group=Storage Areas,Sim Function=Total Inflow,Time=1
Rule Operation=Type=3,Var Type=1,Gate=Gate #1,Sim Group=Inline Structures,Sim Function=Structure.Total Gate Flow
Rule Expression=,Variable=OutflowRayRoberts
Rule Operation=Type=2,Var Name=PoolRayRoberts,Var Type=1,SA=Ray Roberts Lake,Sim Group=Storage Areas,Sim Function=WS Elevation,Time=1
Rule Operation=Type=4,Var Type=1,Branch Type=0,Branch Or=0,BranchCompare1=1,BranchCompare2=0
Rule Expression=,Variable=PoolRayRoberts
Rule Expression=,Constant=564
Rule Operation=Type=3,Var Type=1,Sim Group=Inline Structures,Sim Function=Structure.Stage (Fixed)
Rule Expression=,Constant=563
Rule Operation=Type=4,Var Type=1,Branch Type=5,Branch Or=0,BranchCompare1=0,BranchCompare2=0

Rule Gate Data=Gate #1     ,0.5,0.5,13,0,7.13
Boundary Location=                ,                ,        ,        ,                ,OutflowRayRobert,                ,
Boundary Name=RESSIM RayRoberts Outflow
Interval=1WEEK
Lateral Inflow Hydrograph= 2
     300   30000
Flow Hydrograph QMin= 600
DSS File=Validation.dss
DSS Path=//RAY ROBERTS-POOL/FLOW-OUT//3HOUR/C:000001|EXISTING C:VALIDATION:RESSIM-FC_OPS/
Use DSS=True
Use Fixed Start Time=False
Fixed Start Date/Time=,
Is Critical Boundary=False
Critical Boundary Flow=
Boundary Location=                ,                ,        ,        ,                ,Ray Roberts Lake,                ,
Boundary Name=HMS Ray Roberts Inflow
Interval=1WEEK
Lateral Inflow Hydrograph= 2
     300   30000
Flow Hydrograph QMin= 600
DSS File=Validation.dss
DSS Path=//RAY ROBERTS INFLOW/FLOW//1HOUR/C:000001|EXISTING C:VALIDATION:HMS-(MCA)TRINITY_FRA/
Use DSS=True
Use Fixed Start Time=False
Fixed Start Date/Time=,
Is Critical Boundary=False
Critical Boundary Flow=
Boundary Location=                ,                ,        ,        ,                ,OutflowBenBrook ,                ,
Boundary Name=RESSIM BenBrook Outflow
Interval=1WEEK
Lateral Inflow Hydrograph= 2
     300   20000
Flow Hydrograph QMin= 600
DSS File=Validation.dss
DSS Path=//BENBROOK-POOL/FLOW-OUT//3HOUR/C:000001|EXISTING C:VALIDATION:RESSIM-FC_OPS/
Use DSS=True
Use Fixed Start Time=False
Fixed Start Date/Time=,
Is Critical Boundary=False
Critical Boundary Flow=
Boundary Location=Clear_Fork      ,Clear_Fork      ,60.4    ,        ,                ,                ,                ,
Boundary Name=DAM Benbrook
Rule Operation=Type=2,Var Name=PoolBenBrooke,Var Type=1,SA=Benbrook Lake,Sim Group=Storage Areas,Sim Function=WS Elevation,Time=1
Rule Operation=Type=4,Var Type=1,Branch Type=0,Branch Or=0,BranchCompare1=1,BranchCompare2=0
Rule Expression=,Variable=PoolBenBrooke
Rule Expression=,Constant=670
Rule Operation=Type=3,Var Type=1,Sim Group=Inline Structures,Sim Function=Structure.Total Gate Flow
Rule Expression=,Constant=0
Rule Operation=Type=4,Var Type=1,Branch Type=5,Branch Or=0,BranchCompare1=0,BranchCompare2=0
Rule Operation=Type=2,Var Name=OutflowBenBrook,Var Type=1,SA=OutflowBenBrook,Sim Group=Storage Areas,Sim Function=Total Inflow,Time=1
Rule Operation=Type=3,Var Type=1,Sim Group=Inline Structures,Sim Function=Structure.Total Gate Flow
Rule Expression=,Variable=OutflowBenBrook

Rule Gate Data=Gate #1     ,1,1,20,0,1
Boundary Location=                ,                ,        ,        ,                ,OutflowGrapevine,                ,
Boundary Name=RESSIM Grapevine Outflow
Interval=1WEEK
Lateral Inflow Hydrograph= 2
     300   10000
Flow Hydrograph QMin= 600
DSS File=Validation.dss
DSS Path=//GRAPEVINE-POOL/FLOW-OUT//3HOUR/C:000001|EXISTING C:VALIDATION:RESSIM-FC_OPS/
Use DSS=True
Use Fixed Start Time=False
Fixed Start Date/Time=,
Is Critical Boundary=False
Critical Boundary Flow=
Boundary Location=Mountain_Creek  ,Joe_Pool        ,11.986  ,        ,                ,                ,                ,
Boundary Name=DAM JoePool
Rule Operation=Type=2,Var Name=PoolJoePool,Var Type=1,SA=Joe_Pool,Sim Group=Storage Areas,Sim Function=WS Elevation,Time=1
Rule Operation=Type=4,Var Type=1,Branch Type=0,Branch Or=0,BranchCompare1=1,BranchCompare2=0
Rule Expression=,Variable=PoolJoePool
Rule Expression=,Constant=483
Rule Operation=Type=3,Var Type=1,Sim Group=Inline Structures,Sim Function=Structure.Total Gate Flow
Rule Expression=,Constant=0
Rule Operation=Type=4,Var Type=1,Branch Type=5,Branch Or=0,BranchCompare1=0,BranchCompare2=0
Rule Operation=Type=2,Var Name=OutflowJoePool,Var Type=1,SA=OutflowJoePool,Sim Group=Storage Areas,Sim Function=Total Inflow,Time=1
Rule Operation=Type=3,Var Type=1,Sim Group=Inline Structures,Sim Function=Structure.Total Gate Flow
Rule Expression=,Variable=OutflowJoePool

Rule Gate Data=Gate #1     ,1,1,20,0,1
Boundary Location=                ,                ,        ,        ,                ,OutflowJoePool  ,                ,
Boundary Name=RESSIM Joe Pool Outflow
Interval=1WEEK
Lateral Inflow Hydrograph= 2
     300   13000
Flow Hydrograph QMin= 600
DSS File=Validation.dss
DSS Path=//JOE POOL-POOL/FLOW-OUT//3HOUR/C:000001|EXISTING C:VALIDATION:RESSIM-FC_OPS/
Use DSS=True
Use Fixed Start Time=False
Fixed Start Date/Time=,
Is Critical Boundary=False
Critical Boundary Flow=
Boundary Location=                ,                ,        ,        ,                ,OutflowMtnCreek ,                ,
Boundary Name=RESSIM MtnCreek Outflow
Interval=1WEEK
Lateral Inflow Hydrograph= 2
     300   13000
Flow Hydrograph QMin= 600
DSS File=Validation.dss
DSS Path=//MOUNTAIN CREEK-POOL/FLOW-OUT//3HOUR/C:000001|EXISTING C:VALIDATION:RESSIM-FC_OPS/
Use DSS=True
Use Fixed Start Time=False
Fixed Start Date/Time=,
Is Critical Boundary=False
Critical Boundary Flow=
Boundary Location=                ,                ,        ,        ,                ,OutflowLewisvill,                ,
Boundary Name=RESSIM Lewisville Outflow
Interval=1WEEK
Lateral Inflow Hydrograph= 2
     300   30000
Flow Hydrograph QMin= 600
DSS File=Validation.dss
DSS Path=//LEWISVILLE-POOL/FLOW-OUT//3HOUR/C:000001|EXISTING C:VALIDATION:RESSIM-FC_OPS/
Use DSS=True
Use Fixed Start Time=False
Fixed Start Date/Time=,
Is Critical Boundary=False
Critical Boundary Flow=
Boundary Location=                ,                ,        ,        ,                ,Benbrook Lake   ,                ,
Boundary Name=HMS Benbrook Inflow
Interval=1WEEK
Lateral Inflow Hydrograph= 2
     300   10000
Flow Hydrograph QMin= 600
DSS File=Validation.dss
DSS Path=//BENBROOK INFLOW/FLOW//1HOUR/C:000001|EXISTING C:VALIDATION:HMS-(MCA)TRINITY_FRA/
Use DSS=True
Use Fixed Start Time=False
Fixed Start Date/Time=,
Is Critical Boundary=False
Critical Boundary Flow=
Boundary Location=                ,                ,        ,        ,                ,Joe_Pool        ,                ,
Boundary Name=HMS Joe Pool Inflow
Interval=1WEEK
Lateral Inflow Hydrograph= 2
     300   13000
Flow Hydrograph QMin= 600
DSS File=Validation.dss
DSS Path=//JOE POOL INFLOW/FLOW//1HOUR/C:000001|EXISTING C:VALIDATION:HMS-(MCA)TRINITY_FRA/
Use DSS=True
Use Fixed Start Time=False
Fixed Start Date/Time=,
Is Critical Boundary=False
Critical Boundary Flow=
Boundary Location=Denton_Creek    ,DC              ,11.47   ,        ,                ,                ,                ,
Boundary Name=DAM Grapevine
Rule Operation=Type=2,Var Name=OutflowGrapevine,Var Type=1,SA=OutflowGrapevine,Sim Group=Storage Areas,Sim Function=Total Inflow,Time=1
Rule Operation=Type=3,Var Type=1,Gate=Gate #1,Sim Group=Inline Structures,Sim Function=Gate.Flow (Fixed)
Rule Expression=,Variable=OutflowGrapevine
Rule Operation=Type=2,Var Name=PoolGrapevine,Var Type=1,SA=Grapevine,Sim Group=Storage Areas,Sim Function=WS Elevation,Time=1
Rule Operation=Type=4,Var Type=1,Branch Type=0,Branch Or=0,BranchCompare1=1,BranchCompare2=0
Rule Expression=,Variable=PoolGrapevine
Rule Expression=,Constant=510
Rule Operation=Type=3,Var Type=1,Sim Group=Inline Structures,Sim Function=Structure.Stage (Fixed)
Rule Expression=,Constant=509
Rule Operation=Type=4,Var Type=1,Branch Type=5,Branch Or=0,BranchCompare1=0,BranchCompare2=0

Rule Gate Data=Gate #1     ,1,1,13,0,1
Boundary Location=Elm Fork        ,Upper           ,39.218  ,        ,                ,                ,                ,
Boundary Name=HMS LewisVille_S010
Interval=1YEAR
Lateral Inflow Hydrograph= 2
       0       0
DSS File=Validation.dss
DSS Path=//LEWISVILLE_S010/FLOW//1HOUR/C:000001|EXISTING C:VALIDATION:HMS-(MCA)TRINITY_FRA/
Use DSS=True
Use Fixed Start Time=False
Fixed Start Date/Time=,
Is Critical Boundary=False
Critical Boundary Flow=
Boundary Location=Elm Fork        ,Upper           ,30.742  ,        ,                ,                ,                ,
Boundary Name=HMS LewisVille_Lake
Interval=1YEAR
Lateral Inflow Hydrograph= 2
       0       0
DSS File=Validation.dss
DSS Path=//LEWISVILLE_LK/FLOW//1HOUR/C:000001|EXISTING C:VALIDATION:HMS-(MCA)TRINITY_FRA/
Use DSS=True
Use Fixed Start Time=False
Fixed Start Date/Time=,
Is Critical Boundary=False
Critical Boundary Flow=
Boundary Location=Elm Fork        ,Upper           ,32.759  ,        ,                ,                ,                ,
Boundary Name=HMS Hickory Ck+ Lewisville
Interval=1YEAR
Lateral Inflow Hydrograph= 2
       0       0
DSS File=Validation.dss
DSS Path=//HICKORY CK + LEWISVILLE/FLOW//1HOUR/C:000001|EXISTING C:VALIDATION:HMS-(MCA)TRINITY_FRA/
Use DSS=True
Use Fixed Start Time=False
Fixed Start Date/Time=,
Is Critical Boundary=False
Critical Boundary Flow=
Boundary Location=Elm Fork        ,Upper           ,32.474  ,        ,                ,                ,                ,
Boundary Name=HMS Doe Branch + Lewisville
Interval=1YEAR
Lateral Inflow Hydrograph= 2
       0       0
DSS File=Validation.dss
DSS Path=//DOE BRANCH + LEWISVILLE/FLOW//1HOUR/C:000001|EXISTING C:VALIDATION:HMS-(MCA)TRINITY_FRA/
Use DSS=True
Use Fixed Start Time=False
Fixed Start Date/Time=,
Is Critical Boundary=False
Critical Boundary Flow=
Boundary Location=Trinity River   ,Main            ,465.559 ,        ,                ,                ,                ,
Boundary Name=HMS West Fork + Elm Fork - Local Flow
Interval=1YEAR
Lateral Inflow Hydrograph= 2
       0       0
DSS File=Validation.dss
DSS Path=//WEST FORK + ELM FORK/FLOW-LOCAL//1HOUR/C:000001|EXISTING C:VALIDATION:HMS-(MCA)TRINITY_FRA/
Use DSS=True
Use Fixed Start Time=False
Fixed Start Date/Time=,
Is Critical Boundary=False
Critical Boundary Flow=
Boundary Location=Trinity River   ,Main            ,465.53  ,        ,                ,                ,                ,
Boundary Name=HMS Trinity_River_at_Dallas - Local Flow
Interval=1YEAR
Lateral Inflow Hydrograph= 2
       0       0
DSS File=Validation.dss
DSS Path=//TRINITY_RIVER_AT_DALLAS/FLOW-LOCAL//1HOUR/C:000001|EXISTING C:VALIDATION:HMS-(MCA)TRINITY_FRA/
Use DSS=True
Use Fixed Start Time=False
Fixed Start Date/Time=,
Is Critical Boundary=False
Critical Boundary Flow=
Boundary Location=Elm Fork        ,Lower           ,17.1215 ,        ,                ,                ,                ,
Boundary Name=HMS Elm_Fork_S030
Interval=1YEAR
Lateral Inflow Hydrograph= 2
       0       0
DSS File=Validation.dss
DSS Path=//ELM_FORK_S030/FLOW//1HOUR/C:000001|EXISTING C:VALIDATION:HMS-(MCA)TRINITY_FRA/
Use DSS=True
Use Fixed Start Time=False
Fixed Start Date/Time=,
Is Critical Boundary=False
Critical Boundary Flow=
Boundary Location=Mountain_Creek  ,Joe_Pool        ,6.816   ,        ,                ,                ,                ,
Boundary Name=HMS Mountain_Ck_S010
Interval=1YEAR
Lateral Inflow Hydrograph= 2
       0       0
DSS File=Validation.dss
DSS Path=//MOUNTAIN_CK_S010/FLOW//1HOUR/C:000001|EXISTING C:VALIDATION:HMS-(MCA)TRINITY_FRA/
Use DSS=True
Use Fixed Start Time=False
Fixed Start Date/Time=,
Is Critical Boundary=False
Critical Boundary Flow=
Boundary Location=Trinity River   ,Main            ,382.478 ,        ,                ,                ,                ,
Boundary Name=END OF MODEL
Friction Slope=0.00012,0
Boundary Location=Clear_Fork      ,Clear_Fork      ,47.5355 ,        ,                ,                ,                ,
Boundary Name=RESSIM Fort Worth Outflow
Interval=1YEAR
Lateral Inflow Hydrograph= 2
       0       0
DSS File=Validation.dss
DSS Path=//LAKE WORTH-POOL/FLOW-OUT//3HOUR/C:000001|EXISTING C:VALIDATION:RESSIM-FC_OPS/
Use DSS=True
Use Fixed Start Time=False
Fixed Start Date/Time=,
Is Critical Boundary=False
Critical Boundary Flow=
Boundary Location=Clear_Fork      ,Clear_Fork      ,9.247   ,        ,                ,                ,                ,
Boundary Name=HMS_Big_Bear_Ck_S010
Interval=1YEAR
Lateral Inflow Hydrograph= 2
       0       0
DSS File=Validation.dss
DSS Path=//BIG_BEAR_CK_S010/FLOW//1HOUR/C:000001|EXISTING C:VALIDATION:HMS-(MCA)TRINITY_FRA/
Use DSS=True
Use Fixed Start Time=False
Fixed Start Date/Time=,
Is Critical Boundary=False
Critical Boundary Flow=
Boundary Location=Clear_Fork      ,Clear_Fork      ,20.9215 ,        ,                ,                ,                ,
Boundary Name=HMS West_Fork_at_Grande_Prairie_Local
Interval=1YEAR
Lateral Inflow Hydrograph= 2
       0       0
DSS File=Validation.dss
DSS Path=//WEST_FORK_AT_GRAND_PRAIRIE/FLOW-LOCAL//1HOUR/C:000001|EXISTING C:VALIDATION:HMS-(MCA)TRINITY_FRA/
Use DSS=True
Use Fixed Start Time=False
Fixed Start Date/Time=,
Is Critical Boundary=False
Critical Boundary Flow=
Boundary Location=Clear_Fork      ,Clear_Fork      ,26.7638 ,        ,                ,                ,                ,
Boundary Name=HMS Village_Ck_R010
Interval=1YEAR
Lateral Inflow Hydrograph= 2
       0       0
DSS File=Validation.dss
DSS Path=//VILLAGE_CK_R010/FLOW//1HOUR/C:000001|EXISTING C:VALIDATION:HMS-(MCA)TRINITY_FRA/
Use DSS=True
Use Fixed Start Time=False
Fixed Start Date/Time=,
Is Critical Boundary=False
Critical Boundary Flow=
Boundary Location=Clear_Fork      ,Clear_Fork      ,47.4211 ,        ,                ,                ,                ,
Boundary Name=HMS West Fork + Clear Fork - Local Flow
Interval=1YEAR
Lateral Inflow Hydrograph= 2
       0       0
DSS File=Validation.dss
DSS Path=//WEST FORK + CLEAR FORK/FLOW-LOCAL//1HOUR/C:000001|EXISTING C:VALIDATION:HMS-(MCA)TRINITY_FRA/
Use DSS=True
Use Fixed Start Time=False
Fixed Start Date/Time=,
Is Critical Boundary=False
Critical Boundary Flow=
Boundary Location=Trinity River   ,Main            ,465.559 ,        ,                ,                ,                ,
Boundary Name=HMS Elm_Fork_S040
Interval=1YEAR
Lateral Inflow Hydrograph= 2
       0       0
DSS File=Validation.dss
DSS Path=//ELM_FORK_S040/FLOW//1HOUR/C:000001|EXISTING C:VALIDATION:HMS-(MCA)TRINITY_FRA/
Use DSS=True
Use Fixed Start Time=False
Fixed Start Date/Time=,
Is Critical Boundary=False
Critical Boundary Flow=
Met Point Raster Parameters=,,,,
Precipitation Mode=Disable
Wind Mode=No Wind Forces
Air Density Mode=Specified
Met BC=Precipitation|Expanded View=0
Met BC=Precipitation|Point Interpolation=Nearest
Met BC=Precipitation|Gridded Source=DSS
Met BC=Evapotranspiration|Expanded View=0
Met BC=Evapotranspiration|Point Interpolation=Nearest
Met BC=Evapotranspiration|Gridded Source=DSS
Met BC=Wind Speed|Expanded View=0
Met BC=Wind Speed|Constant Units=ft/s
Met BC=Wind Speed|Point Interpolation=Nearest
Met BC=Wind Speed|Gridded Source=DSS
Met BC=Wind Direction|Expanded View=0
Met BC=Wind Direction|Point Interpolation=Nearest
Met BC=Wind Direction|Gridded Source=DSS
Met BC=Wind Velocity X|Expanded View=0
Met BC=Wind Velocity X|Constant Units=ft/s
Met BC=Wind Velocity X|Point Interpolation=Nearest
Met BC=Wind Velocity X|Gridded Source=DSS
Met BC=Wind Velocity Y|Expanded View=0
Met BC=Wind Velocity Y|Constant Units=ft/s
Met BC=Wind Velocity Y|Point Interpolation=Nearest
Met BC=Wind Velocity Y|Gridded Source=DSS
Met BC=Air Density|Mode=Constant
Met BC=Air Density|Expanded View=0
Met BC=Air Density|Constant Value=1.225
Met BC=Air Density|Point Interpolation=Nearest
Met BC=Air Density|Gridded Source=DSS
Met BC=Air Temperature|Expanded View=0
Met BC=Air Temperature|Point Interpolation=Nearest
Met BC=Air Temperature|Gridded Source=DSS
Met BC=Humidity|Expanded View=0
Met BC=Humidity|Point Interpolation=Nearest
Met BC=Humidity|Gridded Source=DSS
Met BC=Air Pressure|Expanded View=0
Met BC=Air Pressure|Point Interpolation=Nearest
Met BC=Air Pressure|Gridded Source=DSS
Observed RC=8053000,Elm Fork        ,Upper           ,27.920  ,0
Observed RC Desc=Elm Fork nr Lewisville
Observed RC Data= 58
  435.17   15.74  435.31   22.87   435.6   39.44     436   64.28  436.37    90.2
  436.71  116.93  437.04  146.14  437.64  202.95  438.26  266.09  438.71  315.22
  439.31  395.16  439.64  442.75  439.86  477.04  440.49   581.9  441.13  698.35
  441.78  827.76   442.5  983.16  443.24 1153.95  443.99 1339.12  445.23 1660.85
  446.06 1885.92  446.97 2146.25  447.89 2423.57  448.86 2747.84  449.85 3097.39
  450.85 3469.29  451.87 3867.87  452.26 4031.44  453.07 4393.99  453.79 4728.93
  454.48 5061.08  455.45 5546.44  456.45  6069.3  456.54 6117.48  456.99 6402.03
  457.38 6679.12  457.73  6954.8  458.09 7263.86  458.35 7539.97  458.99  8280.1
  459.63  9152.3  460.06 9762.36   460.2 9973.13   460.610637.93  461.11 11550.9
  461.5112416.21  461.7913115.89  462.1214019.45  462.3114566.24   462.916583.53
  463.1717565.82  463.4718984.13  463.7820751.88  464.0822599.03  464.4224866.22
  464.7627331.38  465.0829845.59   465.432561.32
Observed RC Point Data= 0
Observed RC=8055500,Elm Fork        ,Lower           ,17.7649 ,0
Observed RC Desc=Elm Fk Trinity Rv nr Carrollton, TX
Observed RC Data= 35
  434.13       0  434.15     .04  434.18     .24  434.22     .94  434.27    3.48
  434.32    9.48  434.37   19.77  434.64   96.24  434.89  180.86  435.11  275.33
  435.34  390.26  435.54  502.31  435.65   576.9  435.84  718.28  436.16  977.97
  436.58 1365.34  437.06 1878.02  437.36 2264.75  437.71 2768.21  438.09 3383.23
  438.46 4044.29  438.83 4767.11  439.17 5486.11  439.51 6257.92  440.06 7586.07
  440.42 8497.99  441.16 10631.9  441.8712861.61  442.4414760.28  442.7415901.66
  442.8916540.95  443.6520016.44  444.1422453.99  444.8326286.82  445.5230477.29
Observed RC Point Data= 0
Observed RC=8055000,Denton_Creek    ,DC              ,7.24    ,0
Observed RC Desc=Denton Ck nr Grapevine, TX
Observed RC Data= 40
  443.74     .15  443.79     .52  443.84    1.34  443.94    4.05  444.02    8.47
  444.11   15.55   444.3   37.31   444.5   72.31  444.91   159.3  446.52  487.04
  447.01  591.48  447.89  768.98  449.26 1036.77  450.09  1212.2  450.93 1394.82
  452.44 1705.48   453.7 1956.14  455.32 2268.49  455.57 2322.24  455.86 2386.89
  456.46 2534.13  456.75 2615.55  456.92 2667.99   457.3 2793.44  457.99 3033.28
  458.54 3242.78  459.14 3494.16  459.34 3587.99  460.34  4074.6  460.96 4386.74
  462.08 5045.75  463.14 5710.68  464.21 6405.84  464.82 6813.05  466.01 7635.29
  466.76 8168.61  467.53 8735.76  468.31 9330.59  469.07  9929.9  469.8610573.57
Observed RC Point Data= 0
Observed RC=8049500,West_Fork       ,Blw_Clear_Fork  ,7.986   ,0
Observed RC Desc=W Fk Trinity Rv at Grand Prairie, TX
Observed RC Data= 49
  407.02   37.93  407.22   65.01  407.41   99.03  407.61   140.9  408.09   253.2
  408.22  286.04  408.37   331.7  408.77  467.85  409.81  878.06   410.5 1165.98
  411.13 1442.71  411.56 1639.15  411.92 1832.64  413.09  2491.4  414.06 3074.03
  414.74 3504.24  415.58    4063   416.7 4782.94  417.67 5434.27   418.5 6015.72
  419.48 6725.11  420.37 7392.88  421.19 8053.94     422 8725.51  422.82 9423.67
  423.66 10157.4  424.99 11356.6  426.8113030.93   427.914052.97  429.3215521.55
  430.8417150.87  432.2918673.18  433.1619606.54     43420544.72  434.64 21367.9
  435.0521956.19  435.4322620.01  435.7323311.33     43624096.64  436.2725097.11
  436.5126134.58  436.58   26470  436.7527478.65  436.9228673.85  437.1931009.04
  437.7136957.05  438.0441940.96   438.549960.59  438.9458949.67
Observed RC Point Data= 0
Observed RC=8048543,West_Fork       ,Blw_Clear_Fork  ,41.1380 ,0
Observed RC Desc=W Fk Trinity Rv at Beach St, Ft Worth, TX
Observed RC Data= 39
  492.37       0  492.49     .02  492.55     .08   492.6     .18  492.64     .33
  492.72     .88  492.79    1.83  492.86    3.35  492.91    4.92  493.03   11.91
  493.16   24.77  493.26   38.71  493.37   59.96  493.46   81.75  493.61  125.37
  493.77  181.28  494.03  288.43   494.4  470.77  494.67  619.88  494.93   785.2
  495.21  992.13  495.47 1212.11  495.73 1459.01  495.87 1612.89  496.08 1874.23
  496.46 2412.49  496.84 3057.12  497.21 3780.88  497.66 4867.85   498.1 6111.74
  498.85 7820.45  499.14  8404.6   499.5 9067.34  501.0311706.06  502.6114288.49
  503.5215844.28  508.6224809.75  515.9436681.51  520.1143489.23
Observed RC Point Data= 0
Observed RC=8048000,West_Fork       ,Blw_Clear_Fork  ,47.3084 ,0
Observed RC Desc=W Fk Trinity Rv at Ft Worth, TX
Observed RC Data= 36
  519.45       0  519.48     .03  519.51      .1  519.56      .4   519.6     .83
  519.65    1.71   519.7    3.25  519.76    6.11  519.87   14.65  520.02   31.58
  520.12   47.19  520.22    70.1  520.31  101.38  520.35  121.54  520.49  218.82
  520.63  345.84  520.97   716.5  521.14  933.91  521.42 1356.15   521.7 1837.89
  521.85 2162.21  521.97 2504.91  522.14 2897.33  522.87 4272.59  522.99 4573.77
  523.18 5201.11  523.65 6834.97  524.15 9026.27  524.4410382.05  524.72 11790.3
   525.415636.55  525.8818021.31  526.1919780.59  526.7422139.47  527.7626192.62
  530.06 35602.5
Observed RC Point Data= 0
Observed RC=8050100,Mountain_Creek  ,Joe_Pool        ,2.647   ,0
Observed RC Desc=Mountain Ck at Grand Prairie, TX
Observed RC Data= 61
  403.94       0     404     .01  404.08     .08  404.12     .15  404.17      .3
  404.27     .88  404.32    1.36  404.41    2.67   404.5    4.48  404.65    8.38
  404.79   13.23  405.01   22.96  405.15   31.12  405.28   40.55  405.62   70.74
  405.89  101.92  406.34   167.1  406.64  218.21  406.87  263.85   407.6  421.69
  407.92  498.97  408.25  586.58  408.86  728.54  409.51  890.08  410.08 1037.64
  410.27  1099.2  410.49 1162.53  410.77 1231.31   411.1 1300.62  411.59 1391.87
  412.43 1539.75  412.95 1634.79  413.48 1723.94  413.89 1799.81  414.31 1890.95
  414.83 2029.95  415.76  2336.4  416.75 2719.02  417.25 2923.58   417.6 3077.06
  418.13 3317.42  418.68 3577.02  419.07 3767.77  419.62 4049.52  420.76 4664.24
  422.03 5388.11  422.98 5955.27  424.12 6741.14  424.55 7077.87  424.96 7418.81
  425.04 7504.74  425.17 7692.32  425.38  8083.8  425.73 8880.15  426.08 9741.04
  426.3910560.76  426.6511330.79  426.9812375.91  427.3113501.24  427.6314673.74
  427.9515931.04
Observed RC Point Data= 0
Observed RC=8057000,Trinity River   ,Main            ,460.39  ,0
Observed RC Desc=Trinity Rv at Dallas, TX
Observed RC Data= 49
  379.29  242.09  379.46  257.74  379.62  276.87  379.79  301.49  379.89  319.95
   380.3  414.52  380.68  523.51  381.06  638.21   381.7  868.96  382.11 1028.14
  382.68 1262.06  383.14  1470.2  383.68 1725.81  384.82 2295.65  385.94 2891.39
   386.8  3388.2  388.03 4133.99  389.28 4933.99  390.09 5474.99  391.38 6394.03
  392.68 7363.34  393.62 8100.83  394.56 8873.69  395.86 9994.41  396.0910197.13
  396.5910681.08  397.8511937.64  398.7112956.88  399.59 14038.9  400.6615680.91
  401.7317425.42  402.7619403.33  403.7621746.46  404.6424234.49  405.4826952.45
  405.9928932.35  406.39 30577.7  407.4935607.52  408.2839470.71  409.0743632.96
  410.11 49470.4  410.7953514.51  412.0561335.97  412.8566645.87  413.6572274.88
  414.1976260.48  414.73   80400  415.4986986.22  416.2493864.77
Observed RC Point Data= 0
Observed RC=8047500,Clear_Fork      ,Clear_Fork      ,2.4060  ,0
Observed RC Desc=Clear Fk Trinity Rv at Ft Worth, TX
Observed RC Data= 30
  541.03     .02541.0699     .18  541.12       1  541.21       4  541.39   12.53
  541.52   20.18  541.71   39.86  541.78   60.48  541.89  113.85  542.05  222.63
  542.16  320.49  542.27  442.51  542.46  705.85   542.7    1000  543.15    1500
  543.47 1984.55  543.74 2451.93544.0099 2970.53  544.29 3568.36  544.56 4198.74
  544.91 5082.55  545.19 5836.92  545.73    7440  546.19 8746.39546.629910079.77
  547.4912805.12  548.0514686.01     54918046.13  549.45   19700  549.95   21700
Observed RC Point Data= 0
Observed RC=8055560,Elm Fork        ,Lower           ,9.2847  ,0
Observed RC Desc=Elm Fk Trinity Rv at Spur 348, Irving, TX
Observed RC Data= 42
  411.15       0  411.29   20.71  411.45   52.26  411.67  109.05  411.83  158.69
  412.05  250.63  412.35  407.55   412.7  624.64  412.99  818.87  413.29 1038.43
  413.71 1365.75  414.35 1831.21  414.63 2026.87  414.99 2261.28   415.9 2816.25
  418.23 4130.08  419.03 4566.44  419.78 4989.05  420.36 5325.46  421.35 5933.09
  422.41 6634.06  422.61 6791.87  422.74 6909.98  422.85 7036.18  422.97 7210.04
  423.11    7453  423.23 7708.09   423.7 8969.38  423.97 9844.53  424.3611224.96
  424.9513489.19  425.3315068.44  425.7116785.38  426.0818597.14  426.4420499.92
   426.822548.15  427.1624749.36  427.5127043.43  427.8529424.35  428.1931962.38
  428.5234582.67  429.18 40313.7
Observed RC Point Data= 0
Observed RC=8057410,Trinity River   ,Main            ,451.9   ,0
Observed RC Desc=Trinity River Blw Dallas
Observed RC Data= 44
  366.84  156.73  367.14  281.05  367.68  531.24  368.01  658.28  368.98  1009.9
  370.33 1647.19  371.51  2183.7  372.12  2474.6  372.83 2841.12  373.54 3239.09
   374.9 4083.68  375.89  4795.5   376.3 5100.56  377.02 5669.66  378.47 6872.14
  381.15 9213.78  382.7210620.21  383.9711770.01  385.3713192.14   386.514435.11
  387.0115015.48  387.8716025.58  388.8617345.98  389.4118136.67  389.8318885.24
  390.1719605.45  390.4420242.84   390.921620.98  391.6424084.45  392.3526918.55
  392.7928796.09  392.8929282.49  393.6233123.15  394.3337224.41  395.0241745.52
   395.746613.16  396.2951188.76  396.86 55937.9  397.4661304.67  397.91 65676.9
  398.5172116.54  399.0978811.07  399.6685864.47  400.2393412.86
Observed RC Point Data= 0
Observed RC=Trinity Riv Rosser,Trinity River   ,Main_Mid        ,412.297 ,0
Observed RC Desc=
Observed RC Data= 47
  300.21  268.53  300.64  531.48  301.07  808.25  301.27   921.1  301.69  1211.1
  303.57 2733.53  305.84 4500.89  307.91 6249.08  309.15 7465.63  310.47 8847.31
  311.13 9591.87  312.0310641.46  312.7911549.87  313.8312864.32  314.6913981.44
   315.615191.68  316.6316516.62  317.6917908.04  319.0719448.34  320.5321113.98
   321.822653.36  323.0124148.25  324.2725733.21  325.5327376.09  326.7829035.26