Flow Title=Quarter_Flood
Program Version=5.07
Use Restart= 0 
Initial Flow Loc=Clear_Fork      ,Clear_Fork      ,60.4808 ,666.0
Initial Flow Loc=Denton_Creek    ,DC              ,11.5    ,666.0
Initial Flow Loc=Elm Fork        ,Upper           ,59.0    ,666.0
Initial Flow Loc=Elm Fork        ,Upper           ,30.00   ,666.0
Initial Flow Loc=Mountain_Creek  ,Joe_Pool        ,12.038  ,666.0
Initial Flow Loc=Mountain_Creek  ,Joe_Pool        ,4.267   ,666.0
Initial Storage Elev=Benbrook Lake   ,104.0
Initial Storage Elev=Grapevine       ,104.0
Initial Storage Elev=Joe_Pool        ,104.0
Initial Storage Elev=Ray Roberts Lake,104.0
Initial RRR Elev=Elm Fork        ,Upper           ,30.100  ,104.0
Initial RRR Elev=Mountain_Creek  ,Joe_Pool        ,4.284   ,104.0
Boundary Location=Denton_Creek    ,DC              ,11.47   ,        ,                ,                ,                ,                                
Boundary Name=DAM Grapevine
Rule Operation=Type=2,Var Name=TWFlow,Var Type=1,Disabled=-1,River=Denton_Creek,Reach=DC,RS=11.2,Sim Group=Cross Sections,Sim Function=Flow,Time=1
Rule Operation=Type=2,Var Name=GrapevineWS,Var Type=1,Disabled=-1,SA=Grapevine,Sim Group=Storage Areas,Sim Function=WS Elevation,Time=1
Rule Operation=Type=4,Var Type=1,Disabled=-1,Branch Type=0,Branch Or=0,BranchCompare1=2,BranchCompare2=0
Rule Expression=,Variable=GrapevineWS
Rule Expression=,Constant=530
Rule Operation=Type=3,Var Type=1,Disabled=-1,Gate=Gate #2,Sim Group=Inline Structures,Sim Function=Gate.Opening
Rule Expression=,Constant=28
Rule Operation=Type=3,Var Type=1,Disabled=-1,Gate=Gate #1,Sim Group=Inline Structures,Sim Function=Gate.Flow (Fixed)
Rule Expression=,Constant=2000
Rule Operation=Type=4,Var Type=1,Disabled=-1,Branch Type=3,Branch Or=0,BranchCompare1=3,BranchCompare2=2
Rule Expression=,Variable=GrapevineWS
Rule Expression=,Constant=530
Rule Expression=,Variable=GrapevineWS
Rule Expression=,Constant=560.2
Rule Operation=Type=3,Var Type=1,Disabled=-1,Gate=Gate #2,Sim Group=Inline Structures,Sim Function=Gate.Opening
Rule Expression=,Constant=28
Rule Operation=Type=3,Var Type=1,Disabled=-1,Gate=Gate #1,Sim Group=Inline Structures,Sim Function=Gate.Flow (Fixed)
Rule Expression=,Constant=2000
Rule Operation=Type=4,Var Type=1,Disabled=-1,Branch Type=3,Branch Or=0,BranchCompare1=3,BranchCompare2=2
Rule Expression=,Variable=GrapevineWS
Rule Expression=,Constant=560.2
Rule Expression=,Variable=GrapevineWS
Rule Expression=,Constant=560.4
Rule Operation=Type=3,Var Type=1,Disabled=-1,Gate=Gate #2,Sim Group=Inline Structures,Sim Function=Gate.Opening
Rule Expression=,Constant=28
Rule Operation=Type=3,Var Type=1,Disabled=-1,Gate=Gate #1,Sim Group=Inline Structures,Sim Function=Gate.Flow (Fixed)
Rule Expression=,Constant=2000
Rule Operation=Type=4,Var Type=1,Disabled=-1,Branch Type=3,Branch Or=0,BranchCompare1=3,BranchCompare2=2
Rule Expression=,Variable=GrapevineWS
Rule Expression=,Constant=560.4
Rule Expression=,Variable=GrapevineWS
Rule Expression=,Constant=560.6
Rule Operation=Type=3,Var Type=1,Disabled=-1,Gate=Gate #2,Sim Group=Inline Structures,Sim Function=Gate.Opening
Rule Expression=,Constant=28
Rule Operation=Type=3,Var Type=1,Disabled=-1,Gate=Gate #1,Sim Group=Inline Structures,Sim Function=Gate.Flow (Fixed)
Rule Expression=,Constant=2000
Rule Operation=Type=4,Var Type=1,Disabled=-1,Branch Type=3,Branch Or=0,BranchCompare1=3,BranchCompare2=2
Rule Expression=,Variable=GrapevineWS
Rule Expression=,Constant=560.6
Rule Expression=,Variable=GrapevineWS
Rule Expression=,Constant=560.85
Rule Operation=Type=3,Var Type=1,Disabled=-1,Gate=Gate #2,Sim Group=Inline Structures,Sim Function=Gate.Opening
Rule Expression=,Constant=28
Rule Operation=Type=3,Var Type=1,Disabled=-1,Gate=Gate #1,Sim Group=Inline Structures,Sim Function=Gate.Flow (Fixed)
Rule Expression=,Constant=2000
Rule Operation=Type=4,Var Type=1,Disabled=-1,Branch Type=2,Branch Or=0,BranchCompare1=3,BranchCompare2=0
Rule Expression=,Variable=GrapevineWS
Rule Expression=,Constant=560.85
Rule Expression=,Variable=GrapevineWS
Rule Expression=,Constant=560.9
Rule Operation=Type=3,Var Type=1,Disabled=-1,Gate=Gate #2,Sim Group=Inline Structures,Sim Function=Gate.Opening
Rule Expression=,Constant=28
Rule Operation=Type=3,Var Type=1,Disabled=-1,Gate=Gate #1,Sim Group=Inline Structures,Sim Function=Gate.Flow (Fixed)
Rule Expression=,Constant=2000
Rule Operation=Type=4,Var Type=1,Disabled=-1,Branch Type=5,Branch Or=0,BranchCompare1=0,BranchCompare2=0
Rule Operation=Type=4,Var Type=1,Disabled=-1,Branch Type=0,Branch Or=0,BranchCompare1=3,BranchCompare2=0
Rule Expression=,Variable=TWFlow
Rule Expression=,Constant=2500
Rule Operation=Type=3,Var Type=1,Disabled=-1,Gate=Gate #2,Sim Group=Inline Structures,Sim Function=Gate.Opening
Rule Expression=,Constant=28
Rule Operation=Type=3,Var Type=1,Disabled=-1,Gate=Gate #1,Sim Group=Inline Structures,Sim Function=Gate.Flow (Fixed)
Rule Expression=,Constant=2000
Rule Operation=Type=4,Var Type=1,Disabled=-1,Branch Type=5,Branch Or=0,BranchCompare1=0,BranchCompare2=0
Rule Operation=Type=2,Var Name=OutflowGrapevine,Var Type=1,SA=OutflowGrapevine,Sim Group=Storage Areas,Sim Function=Total Inflow,Time=1
Rule Operation=Type=3,Var Type=1,Gate=Gate #1,Sim Group=Inline Structures,Sim Function=Gate.Flow (Fixed)
Rule Expression=,Variable=OutflowGrapevine

Rule Gate Data=Gate #1     ,0,0,1,0,1
Boundary Location=East Fork       ,1               ,29.222  ,        ,                ,                ,                ,                                
Boundary Name=EAST FORK BOUNDARY
Interval=1YEAR
Flow Hydrograph= 2 
       0       0
Flow Hydrograph QMin= 2000 
Flow Hydrograph QMult= 0.25 
DSS Path=
Use DSS=False
Use Fixed Start Time=False
Fixed Start Date/Time=,
Is Critical Boundary=False
Critical Boundary Flow=
Boundary Location=Elm Fork        ,Upper           ,56.8    ,        ,                ,                ,                ,                                
Boundary Name=DAM Ray Roberts
Rule Operation=Type=2,Var Name=OutflowRayRoberts,Var Type=1,SA=OutflowRayRobert,Sim Group=Storage Areas,Sim Function=Total Inflow,Time=1
Rule Operation=Type=3,Var Type=1,Gate=Gate #1,Sim Group=Inline Structures,Sim Function=Structure.Total Gate Flow
Rule Expression=,Variable=OutflowRayRoberts

Rule Gate Data=Gate #1     ,0.5,0.5,13,0,7.13
Rule Gate Data=Gate #2     ,24.5,24.5,24.5,24.5,24.5
Boundary Location=Elm Fork        ,Upper           ,30.00   ,        ,                ,                ,                ,                                
Boundary Name=DAM Lewisville
Rule Operation=Type=2,Var Name=OutflowLewisville,Var Type=1,SA=OutflowLewisvill,Sim Group=Storage Areas,Sim Function=Total Inflow,Time=1
Rule Operation=Type=3,Var Type=1,Sim Group=Inline Structures,Sim Function=Structure.Total Gate Flow
Rule Expression=,Variable=OutflowLewisville

Rule Gate Data=Gate #2     ,28,28,28,28,28
Rule Gate Data=Gate #1     ,0.5,0.5,13,0,5.1
Boundary Location=                ,                ,        ,        ,                ,Grapevine       ,                ,                                
Boundary Name=HMS Grapevine Inflow
Interval=1HOUR
Lateral Inflow Hydrograph= 313 
     317     325     323     349     395     408     390     381     390     849
    2572    7331   16875   31092   53034   77846   90185   92903  101877  127964
  170649  217096  250413  266653  268443  270156  298544  356302  407183  433483
  460700  500674  529603  536950  538341  541125  546946  554164  557415  556368
  552292  543335  530172  516836  503649  490359  476652  460832  442360  421889
  400341  378650  357359  337092  318035  300063  283053  266941  251703  237323
  223775  211025  199036  187770  177195  167283  158014  149391  141476  134386
  128232  123000  118513  114583  111112  108081  105433  103032  100776   98616
   96523   94488   92511   90616   88811   87082   85419   83809   82238   80693
   79223   77798   76374   74978   73637   72263   70985   69747   68623   67537
   66459   65389   64352   63344   62353   61389   60469   59583   58716   57867
   57019   56188   55380   54556   53726   52912   52112   51325   50560   49823
   49103   48389   47685   47003   46330   45659   44999   44360   43757   43188
   42613   42011   41410   40825   40245   39670   39113   38601   38124   37622
   37110   36634   36186   35734   35258   34770   34281   33788   33300   32826
   32364   31904   31444   30992   30550   30121   29708   29317   28949   28599
   28255   27906   27545   27172   26792   26409   26028   25650   25279   24912
   24552   24197   23848   23504   23165   22832   22503   22180   21861   21548
   21239   20934   20634   20338   20046   19759   19475   19195   18920   18648
   18382   18118   17858   17601   17349   17101   16858   16619   16388   16163
   15944   15725   15506   15288   15072   14859   14650   14444   14242   14042
   13844   13648   13455   13264   13076   12890   12707   12526   12347   12170
   11996   11825   11656   11488   11322   11159   11000   10847   10702   10560
   10413   10264   10111    9954    9801    9675    9573    9462    9327    9184
    9044    8919    8801    8685    8569    8452    8340    8243    8147    8053
    7985    7954    7915    7832    7726    7617    7522    7451    7401    7364
    7327    7277    7205    7109    6997    6878    6758    6643    6534    6428
    6323    6219    6117    6016    5916    5817    5720    5625    5531    5441
    5352    5267    5183    5101    5021    4944    4869    4794    4722    4651
    4582    4515    4449    4384    4321    4258    4197    4137    4077    4020
    3967    3923    3882    3837    3786    3732    3678    3625    3573    3521
    3469    3417    3366
Flow Hydrograph QMin= 300 
Flow Hydrograph QMult= 0.25 
DSS Path=
Use DSS=False
Use Fixed Start Time=False
Fixed Start Date/Time=,
Is Critical Boundary=False
Critical Boundary Flow=
Boundary Location=                ,                ,        ,        ,                ,Joe_Pool        ,                ,                                
Boundary Name=HMS Joe Pool Inflow
Interval=1HOUR
Lateral Inflow Hydrograph= 313 
     122      86      84     149     153      91     157      92     157     641
    1007    5686   11278   29898   58805   77510   84680   87121   86847   98550
  120210  140557  157629  158847  155382  153343  167162  187417  199415  200509
  208307  212557  208420  200562  184689  168654  150894  138319  129728  127662
  120329  111388   98866   87089   76476   67158   58978   51795   45489   39952
   35091   30822   27074   23656   20643   18137   15920   13872   12134   10513
    9096    7971    6821    5835    5130    4236    3696    3017    2691    2598
    2571    2518    2477    2440    2403    2391    2343    2326    2318    2308
    2293    2250    2211    2159    2116    2085    2039    2022    1992    1936
    1926    1887    1853    1886    1815    1780    1800    1887    1880    1838
    1741    1732    1702    1659    1633    1671    1724    1650    1697    1629
    1601    1674    1574    1551    1532    1501    1433    1427    1433    1404
    1373    1323    1345    1316    1264    1248    1221    1231    1293    1236
    1194    1174    1185    1146    1122    1128    1115    1220    1099    1073
    1055    1037     999     985     987     967     933     913     905     909
     883     852     838     821     807     797     788     775     769     760
     735     721     710     698     687     676     666     655     645     635
     625     615     605     597     586     576     570     560     550     541
     532     523     515     507     499     491     483     475     468     461
     454     447     440     433     427     420     413     406     400     394
     389     382     376     371     366     361     357     353     350     345
     341     335     330     325     319     314     310     306     302     298
     293     288     284     279     275     271     267     269     264     258
     254     249     244     240     238     240     232     228     224     219
     216     212     209     206     202     199     197     194     192     190
     196     194     190     190     186     181     179     174     173     171
     166     163     163     160     157     153     150     148     145     143
     141     138     136     134     133     130     128     126     124     122
     120     118     116     114     113     111     109     107     105     104
     102     100     100      98      97      95      97      97      96      98
      90      89      87      86      84      83      82      81      81      79
      77      76      76
Flow Hydrograph QMin= 300 
Flow Hydrograph QMult= 0.25 
DSS Path=
Use DSS=False
Use Fixed Start Time=False
Fixed Start Date/Time=,
Is Critical Boundary=False
Critical Boundary Flow=
Boundary Location=                ,                ,        ,        ,                ,Ray Roberts Lake,                ,                                
Boundary Name=HMS Ray Roberts Inflow
Interval=1YEAR
Lateral Inflow Hydrograph= 313 
     365     403     557     964    1753    2457    2728    3236    4638   10453
   22597   49482   93706  155893  248251  335224  387916  425076  454831  495172
  534642  555916  559789  544651  517181  489961  483055  491257  488667  470704
  451063  441964  440017  433808  416628  392073  366840  343928  322440  300335
  276184  250353  224889  200923  179218  159665  142184  126729  113502   84560
   82179   73704   67950   62651   57882   53566   49615   45837   42322   39289
   36363   33814   31306   29044   27354   25899   24513   23136   21910   20777
   20066   19442   18805   18205   17649   17197   16753   16288   16011   15877
   15690   15416   15078   14649   14025   13497   13024   12625   12287   11966
   11674   11346   11094   10870   10567   10357   10108    9917    9633    9473
    9320    9180    9067    8956    8848    8743    8641    8540    8446    8354
    8260    8200    8122    8007    7902    7803    7709    7619    7534    7451
    7369    7288    7210    7133    7058    6984    6912    6841    6797    6760
    6690    6607    6536    6471    6403    6337    6297    6341    6328    6207
    6111    6028    5952    5883    5836    5800    5744    5676    5615    5569
    5523    5469    5417    5388    5382    5349    5291    5234    5179    5129
    5117    5256    5619    6026    6058    5870    5826    5741    5612    5504
    5334    5206    5161    5072    4971    4980    4919    4779    4685    4615
    4588    4579    4540    4497    4473    4421    4348    4286    4268    4470
    4663    4737    4751    4591    4427    4332    4252    4169    4110    4051
    3986    3941    3908    3870    3841    3864    3951    4049    4059    4040
    3985    3864    3764    3695    3648    3623    3646    3658    3620    3636
    3809    3980    3996    3900    3745    3629    3543    3461    3402    3358
    3323    3293    3267    3245    3241    3328    3383    3349    3321    3284
    3231    3179    3152    3141    3112    3086    3148    3201    3204    3218
    3371    3478    3360    3228    3118    3034    2981    2940    2911    2889
    2860    2831    2810    2795    2781    2763    2745    2734    2748    2748
    2726    2720    2703    2669    2641    2619    2601    2609    2610    2582
    2557    2537    2521    2506    2499    2491    2473    2458    2444    2428
    2413    2399    2386    2374    2361    2349    2337    2326    2314    2302
    2290    2278    2266    2254    2243    2231    2220    2209    2198    2187
    2176    2165    2154
Flow Hydrograph QMin= 300 
Flow Hydrograph QMult= 0.25 
DSS Path=
Use DSS=False
Use Fixed Start Time=False
Fixed Start Date/Time=,
Is Critical Boundary=False
Critical Boundary Flow=
Boundary Location=Mountain_Creek  ,Joe_Pool        ,4.267   ,        ,                ,                ,                ,                                
Boundary Name=DAM MountainCreek
Rule Operation=Type=2,Var Name=OutflowMtnCreek,Var Type=1,SA=OutflowMtnCreek,Sim Group=Storage Areas,Sim Function=Total Inflow,Time=1
Rule Operation=Type=3,Var Type=1,Sim Group=Inline Structures,Sim Function=Structure.Total Gate Flow
Rule Expression=,Variable=OutflowMtnCreek

Rule Gate Data=Gate #1     ,0.5,0.5,27,0,0.1
Rule Gate Data=Gates 2-6   ,0.5,0.5,27,0,0.1
Boundary Location=                ,                ,        ,        ,                ,Trinity32L      ,                ,                                
Boundary Name=HMS Hickory Ck+ Lewisville
Interval=1HOUR
Lateral Inflow Hydrograph= 313 
     167     179     199     243     360     579     838    1094    1475    2687
    5833   13056   26899   48498   80209  118565  148948  167011  180239  190134
  196589  203247  210784  215813  215743  211295  207753  209690  214521  215366
  210827  204900  200062  195916  190702  183317  173979  163762  153802  144637
  136094  127651  119090  110606  102485   94824   87604   80803   74415   68445
   62899   57772   53046   48697   44695   41014   37633   34529   31679   29063
   26664   24467   22307   20573   19333   18308   17282   16289   15518   15159
   14794   14612   14433   14256   14081   13909   13739   13571   13406   13242
   13081   12922   12769   12619   12466   12315   12166   12019   11874   11731
   11590   11451   11313   11178   11044   10912   10781   10652   10525   10400
   10276   10154   10033    9914    9797    9681    9566    9453    9342    9232
    9123    9016    8911    8808    8705    8603    8503    8404    8306    8209
    8113    8019    7926    7834    7744    7654    7566    7478    7392    7310
    7230    7150    7069    6988    6908    6829    6752    6680    6618    6557
    6489    6415    6343    6271    6201    6131    6062    5994    5927    5860
    5795    5730    5666    5603    5542    5484    5427    5369    5309    5250
    5192    5144    5125    5149    5196    5230    5234    5219    5197    5165
    5120    5067    5014    4961    4909    4858    4807    4757    4707    4658
    4609    4561    4513    4466    4420    4373    4328    4283    4238    4194
    4173    4171    4173    4162    4130    4088    4046    4005    3964    3924
    3885    3845    3806    3768    3730    3692    3655    3629    3611    3593
    3569    3535    3500    3465    3431    3397    3363    3330    3297    3264
    3241    3236    3245    3248    3232    3200    3169    3139    3108    3078
    3049    3019    2990    2961    2933    2905    2882    2865    2846    2821
    2794    2767    2741    2714    2689    2663    2638    2619    2607    2595
    2590    2597    2605    2598    2574    2550    2526    2503    2480    2457
    2434    2412    2389    2367    2345    2324    2302    2281    2260    2239
    2219    2198    2178    2158    2138    2119    2099    2080    2061    2042
    2024    2005    1987    1969    1951    1934    1916    1899    1882    1865
    1848    1831    1815    1798    1782    1766    1750    1734    1719    1704
    1688    1673    1658    1643    1629    1614    1600    1586    1572    1558
    1544    1530    1517
Flow Hydrograph QMin= 300 
Flow Hydrograph QMult= 0.25 
DSS Path=
Use DSS=False
Use Fixed Start Time=False
Fixed Start Date/Time=,
Is Critical Boundary=False
Critical Boundary Flow=
Boundary Location=                ,                ,        ,        ,                ,Trinity32R      ,                ,                                
Boundary Name=HMS Doe Branch + Lewisville
Interval=1HOUR
Lateral Inflow Hydrograph= 313 
     168     157     148     145     144     142     141     140     139     141
     171     336     862    2145    4760    9518   17357   28313   40901   52870
   62485   69874   77019   85681   95958  106493  115232  121286  126486  133409
  142407  151383  157922  161716  163937  165365  165704  164154  160473  155095
  148659  141726  134715  127818  121061  114432  107964  101729   95789   90179
   84895   79922   75242   70838   66694   62794   59123   55669   52418   49358
   46478   43767   41215   38813   36551   34423   32419   30532   28756   27084
   25510   24028   22633   21319   20082   18918   17821   16789   15817   14902
   14045   13247   12509   11830   11205   10622   10069    9536    9019    8518
    8037    7577    7143    6734    6348    5984    5646    5365    5203    5129
    5082    5041    5002    4963    4925    4887    4849    4812    4775    4738
    4702    4665    4629    4594    4558    4523    4489    4454    4420    4386
    4352    4318    4285    4252    4219    4187    4155    4123    4091    4059
    4028    3997    3966    3936    3905    3875    3845    3816    3787    3758
    3732    3708    3689    3669    3646    3619    3592    3564    3537    3509
    3482    3455    3429    3402    3376    3350    3324    3299    3273    3248
    3223    3198    3174    3149    3125    3101    3077    3053    3030    3007
    2983    2960    2938    2915    2893    2870    2848    2826    2804    2783
    2761    2740    2719    2698    2677    2657    2636    2616    2596    2576
    2556    2536    2517    2498    2479    2460    2442    2423    2405    2386
    2368    2350    2332    2314    2296    2278    2261    2243    2226    2209
    2193    2177    2161    2145    2129    2112    2096    2080    2064    2048
    2032    2017    2002    1987    1973    1959    1945    1930    1916    1901
    1886    1872    1858    1843    1829    1815    1801    1787    1773    1760
    1746    1733    1720    1707    1694    1681    1668    1655    1643    1630
    1618    1609    1608    1622    1648    1677    1701    1713    1710    1699
    1687    1674    1661    1648    1636    1623    1611    1598    1586    1574
    1562    1550    1538    1526    1514    1502    1491    1479    1468    1457
    1445    1434    1423    1412    1401    1391    1380    1369    1359    1348
    1338    1328    1317    1307    1297    1287    1277    1267    1258    1248
    1238    1229    1219    1210    1201    1191    1182    1173    1164    1155
    1146    1137    1129
Flow Hydrograph QMin= 300 
Flow Hydrograph QMult= 0.25 
DSS Path=
Use DSS=False
Use Fixed Start Time=False
Fixed Start Date/Time=,
Is Critical Boundary=False
Critical Boundary Flow=
Boundary Location=Trinity River   ,Main_Mid        ,399.699 ,        ,                ,                ,                ,                                
Boundary Name=End of Model
Friction Slope=0.0002,0
Boundary Location=Clear_Fork      ,Clear_Fork      ,60.4    ,        ,                ,                ,                ,                                
Boundary Name=DAM BenBrook
Rule Operation=Type=2,Var Name=OutflowBenBrook,Var Type=1,SA=OutflowBenBrook,Sim Group=Storage Areas,Sim Function=Total Inflow,Time=1
Rule Operation=Type=3,Var Type=1,Sim Group=Inline Structures,Sim Function=Structure.Total Gate Flow
Rule Expression=,Variable=OutflowBenBrook

Rule Gate Data=Gate #1     ,0,0,0,0,1
Boundary Location=                ,                ,        ,        ,                ,Benbrook Lake   ,                ,                                
Boundary Name=HMS Benbrook Inflow
Interval=1HOUR
Lateral Inflow Hydrograph= 313 
     462     467     441     448     478     477     431     370     321     290
     278     890    4581   16840   43055   67998   77286   75085   72288   87703
  130204  165699  182183  187140  180204  177416  220755  310419  353124  348098
  569926  712125  592780  527673  476554  428822  411544  426042  445308  461452
  466520  451584  423553  390651  361349  337792  315523  294858  275651  258260
  242482  228036  214674  202212  190534  179586  169382  160000  151368  143398
  136039  129259  122986  117088  111531  106344  101579   97292   93486   90050
   86917   84037   81347   78821   76435   74168   72001   69922   67920   66057
   64343   62604   60884   59208   57597   56078   54635   53229   51841   50468
   49115   47785   46483   45201   43880   42457   41121   39909   38782   37717
   36720   35775   34866   33983   33128   32299   31493   30712   29952   29215
   28498   27801   27124   26466   25826   25203   24598   24010   23437   22880
   22338   21811   21297   20797   20311   19837   19375   18925   18487   18061
   17645   17239   16843   16456   16080   15713   15357   15015   14689   14382
   14096   13831   13584   13350   13124   12903   12682   12461   12239   12015
   11791   11566   11342   11119   10899   10680   10462   10250   10050    9867
    9690    9516    9346    9177    9004    8830    8662    8496    8330    8163
    7998    7835    7676    7520    7367    7218    7072    6928    6781    6636
    6495    6361    6231    6103    5978    5862    5756    5659    5574    5521
    5501    5469    5432    5378    5300    5214    5130    5058    4999    4947
    4886    4818    4755    4693    4615    4542    4481    4440    4399    4329
    4233    4130    4028    3941    3879    3842    3821    3814    3805    3795
    3796    3799    3788    3760    3723    3688    3657    3631    3608    3587
    3568    3550    3533    3515    3498    3482    3467    3452    3437    3422
    3407    3392    3377    3361    3341    3313    3275    3230    3180    3131
    3092    3064    3034    2989    2929    2856    2770    2672    2571    2473
    2382    2297    2216    2140    2066    1996    1930    1866    1805    1748
    1694    1642    1595    1551    1511    1473    1437    1402    1368    1335
    1304    1273    1243    1215    1187    1160    1133    1108    1083    1059
    1036    1013     991     970     949     928     909     890     871     852
     834     817     800     783     767     752     736     721     707     693
     679     665     652
Flow Hydrograph QMin= 300 
Flow Hydrograph QMult= 0.25 
DSS Path=
Use DSS=False
Use Fixed Start Time=False
Fixed Start Date/Time=,
Is Critical Boundary=False
Critical Boundary Flow=
Boundary Location=                ,                ,        ,        ,                ,OutflowGrapevine,                ,                                
Boundary Name=RESSIM Grapevine Outflow
Interval=3HOUR
Lateral Inflow Hydrograph= 105 
       0       0       0       0       0       0       0       0       0       0
    2559   37230  106917  176572  238816  291934  365828  402804  387903  351711
  314795  289246  271131  251927  232188  213237  195811  180122  166137  153610
  142415  132417  123455  115363  108078  101523   95549   90154   85181   80666
   76471   72597   69037   65692   62628   59782   57086   54569   52265   50071
   47974   46000   44158   42385   40692   39076   37585   36153   34762   33413
   32107   30879   29731   28613   27527   26473   25451   24472   23591   22731
   21894   21080   20291   19525   18781   18101   17463   16841   16236   15646
   15075   14522   13985   13467   12980   12566   12164   11778   11408   11048
   10690   10334    9983    9636    9294    8959    8633    8321    8059    7800
    7547    7300    7059    6825    6597
Flow Hydrograph QMin= 300 
Flow Hydrograph QMult= 0.25 
DSS File=..\DummyInflowsToDams.dss
DSS Path=/NRCDUMMY/GRAPEVINE/OUTFLOW/01AUG2020/1HOUR//
Use DSS=False
Use Fixed Start Time=False
Fixed Start Date/Time=,
Is Critical Boundary=False
Critical Boundary Flow=
Boundary Location=Mountain_Creek  ,Joe_Pool        ,11.986  ,        ,                ,                ,                ,                                
Boundary Name=DAM JoePool
Rule Operation=Type=2,Var Name=OutflowJoePool,Var Type=1,SA=OutflowJoePool,Sim Group=Storage Areas,Sim Function=Total Inflow,Time=1
Rule Operation=Type=3,Var Type=1,Sim Group=Inline Structures,Sim Function=Structure.Total Gate Flow
Rule Expression=,Variable=OutflowJoePool

Rule Gate Data=Gate #1     ,0,0,0,0,0
Boundary Location=                ,                ,        ,        ,                ,OutflowBenBrook ,                ,                                
Boundary Name=RESSIM BenBrook Outflow
Interval=3HOUR
Lateral Inflow Hydrograph= 105 
       0       0       0       0       0       0       0       0     177    5691
   30895  136545  250289  344863  419434  409750  354849  303882  270447  246068
  220052  195542  173190  153533  136257  121730  109265   98948   89832   82180
   75362   69182   63924   59021   54381   50321   46874   43618   40545   37710
   35415   33299   31269   29315   27465   25781   24562   23413   22298   21218
   20179   19184   18232   17602   17124   16643   16160   15671   15178   14686
   14197   13731   13278   12832   12399   11979   11570   11172   10787   10413
   10092    9775    9462    9159    8868    8589    8320    8062    7814    7577
    7350    7153    6972    6795    6621    6448    6276    6099    5917    5730
    5543    5356    5171    4989    4812    4637    4493    4353    4217    4083
    3953    3825    3701    3579    3460
Flow Hydrograph QMin= 300 
Flow Hydrograph QMult= 0.25 
DSS File=..\DummyInflowsToDams.dss
DSS Path=/NRCDUMMY/BENBROOK/OUTFLOW/01AUG2020/1HOUR//
Use DSS=False
Use Fixed Start Time=False
Fixed Start Date/Time=,
Is Critical Boundary=False
Critical Boundary Flow=
Boundary Location=                ,                ,        ,        ,                ,OutflowRayRobert,                ,                                
Boundary Name=RESSIM RayRoberts Outflow
Interval=3HOUR
Lateral Inflow Hydrograph= 105 
       0       0       0       0       0       0       0       0    1565    3000
    4749    7533   10624   12658   14484   15852   16866   17571   18026   18337
   18550   18689   18773   18817   18835   18836   18824   18803   18776   18740
   18694   18641   18581   18517   18448   18377   18303   18228   18152   18074
   17994   17912   17827   17742   17656   17569   17481   17393   17305   17215
   17125   17039   16960   16881   16801   16725   16651   16576   16499   16421
   16342   16261   16179   16097   16016   15936   15855   15774   15691   15609
   15528   15455   15382   15309   15237   15166   15095   15022   14949   14876